data_functionalizedCrystal

_cell_length_a	20.9784
_cell_length_b	20.9784
_cell_length_c	20.9784
_cell_angle_alpha	90
_cell_angle_beta	90
_cell_angle_gamma	90

_symmetry_cell_setting	triclinic
_symmetry_space_group_name_H-M	'P 1'
_symmetry_Int_Tables_number	1
_symmetry_equiv_pos_as_xyz 'x,y,z'

loop_
_atom_site_label
_atom_site_type_symbol
_atom_site_fract_x
_atom_site_fract_y
_atom_site_fract_z
_atom_site_charge
Mof_C1        C        0.15235        0.65235        0.5041        0.7098        
Mof_C2        C        0.0041        0.65235        0.65235        0.6986        
Mof_C3        C        0.0062        0.70285        0.70285        -0.2576        
Mof_C4        C        0.0065        0.68565        0.76745        0.006999999999999999        
Mof_C5        C        0.26745        0.0065        0.18565        -0.0336        
Mof_C6        C        0.81435        0.5065        0.23255        -0.018199999999999997        
Mof_C7        C        0.15235        0.4959        0.34765        0.7041999999999999        
Mof_C8        C        0.20285        0.0062        0.20285        -0.3374        
Mof_C9        C        0.0062        0.29715        0.29715        -0.26039999999999996        
Mof_C10        C        0.0065        0.31435        0.23255        -0.0756        
Mof_C11        C        0.5065        0.23255        0.81435        -0.018199999999999997        
Mof_C12        C        0.18565        0.5065        0.76745        0.0294        
Mof_C13        C        0.9959        0.34765        0.65235        0.6678        
Mof_C14        C        0.9938        0.70285        0.29715        -0.0784        
Mof_C15        C        0.9935        0.68565        0.23255        0.0392        
Mof_C16        C        0.73255        0.9935        0.18565        0.0406        
Mof_C17        C        0.81435        0.4935        0.76745        0.043399999999999994        
Mof_C18        C        0.84765        0.5041        0.34765        0.6496        
Mof_C19        C        0.79715        0.9938        0.20285        -0.0756        
Mof_C20        C        0.65235        0.0041        0.65235        0.6986        
Mof_C21        C        0.76745        0.4935        0.81435        0.043399999999999994        
Mof_C22        C        0.4935        0.23255        0.18565        -0.020999999999999998        
Mof_C23        C        0.0062        0.20285        0.20285        -0.3374        
Mof_C24        C        0.0041        0.34765        0.34765        0.6831999999999999        
Mof_C25        C        0.18565        0.4935        0.23255        -0.020999999999999998        
Mof_C26        C        0.4935        0.76745        0.81435        0.043399999999999994        
Mof_C27        C        0.29715        0.79715        0.5062        -0.13019999999999998        
Mof_C28        C        0.9935        0.31435        0.76745        0.0672        
Mof_C29        C        0.15235        0.84765        0.9959        0.6621999999999999        
Mof_C30        C        0.20285        0.70285        0.5062        -0.21419999999999997        
Mof_C31        C        0.34765        0.15235        0.4959        0.7041999999999999        
Mof_C32        C        0.68565        0.73255        0.4935        0.018199999999999997        
Mof_C33        C        0.23255        0.31435        0.0065        -0.0756        
Mof_C34        C        0.84765        0.84765        0.0041        0.6342        
Mof_C35        C        0.70285        0.79715        0.4938        -0.12459999999999999        
Mof_C36        C        0.34765        0.84765        0.5041        0.6496        
Mof_C37        C        0.84765        0.65235        0.4959        0.6621999999999999        
Mof_C38        C        0.18565        0.73255        0.9935        0.0406        
Mof_C39        C        0.84765        0.15235        0.9959        0.6621999999999999        
Mof_C40        C        0.4959        0.15235        0.34765        0.7041999999999999        
Mof_C41        C        0.79715        0.29715        0.5062        -0.13019999999999998        
Mof_C42        C        0.31435        0.26745        0.4935        0.0042        
Mof_C43        C        0.76745        0.68565        0.0065        0.006999999999999999        
Mof_C44        C        0.29715        0.20285        0.4938        -0.21        
Mof_C45        C        0.73255        0.68565        0.4935        0.018199999999999997        
Mof_C46        C        0.65235        0.15235        0.5041        0.7098        
Mof_C47        C        0.79715        0.70285        0.4938        -0.12459999999999999        
Mof_C48        C        0.76745        0.31435        0.9935        0.0672        
Mof_C49        C        0.68565        0.26745        0.5065        0.0266        
Mof_C50        C        0.70285        0.20285        0.5062        -0.21419999999999997        
Mof_C51        C        0.9938        0.29715        0.70285        -0.0784        
Mof_C52        C        0.31435        0.73255        0.5065        -0.015399999999999999        
Mof_C53        C        0.65235        0.84765        0.4959        0.6621999999999999        
Mof_C54        C        0.81435        0.26745        0.9935        0.063        
Mof_C55        C        0.0065        0.26745        0.18565        -0.0336        
Mof_C56        C        0.34765        0.9959        0.65235        0.6678        
Mof_C57        C        0.9935        0.26745        0.81435        0.063        
Mof_C58        C        0.5065        0.18565        0.76745        0.0294        
Mof_C59        C        0.29715        0.29715        0.0062        -0.26039999999999996        
Mof_C60        C        0.68565        0.9935        0.23255        0.0392        
Mof_C61        C        0.31435        0.23255        0.0065        -0.0756        
Mof_C62        C        0.70285        0.9938        0.29715        -0.0784        
Mof_C63        C        0.4935        0.81435        0.76745        0.043399999999999994        
Mof_C64        C        0.70285        0.70285        0.0062        -0.2576        
Mof_C65        C        0.68565        0.76745        0.0065        0.006999999999999999        
Mof_C66        C        0.26745        0.81435        0.9935        0.063        
Mof_C67        C        0.81435        0.23255        0.5065        -0.018199999999999997        
Mof_C68        C        0.20285        0.79715        0.9938        -0.0756        
Mof_C69        C        0.79715        0.20285        0.9938        -0.0756        
Mof_C70        C        0.26745        0.18565        0.0065        -0.0336        
Mof_C71        C        0.73255        0.18565        0.9935        0.0406        
Mof_C72        C        0.15235        0.34765        0.4959        0.7041999999999999        
Mof_C73        C        0.20285        0.20285        0.0062        -0.3374        
Mof_C74        C        0.68565        0.23255        0.9935        0.0392        
Mof_C75        C        0.29715        0.70285        0.9938        -0.0784        
Mof_C76        C        0.84765        0.34765        0.5041        0.6496        
Mof_C77        C        0.70285        0.29715        0.9938        -0.0784        
Mof_C78        C        0.31435        0.76745        0.9935        0.0672        
Mof_C79        C        0.73255        0.81435        0.0065        -0.0392        
Mof_C80        C        0.29715        0.0062        0.29715        -0.26039999999999996        
Mof_C81        C        0.5041        0.15235        0.65235        0.7098        
Mof_C82        C        0.31435        0.0065        0.23255        -0.0756        
Mof_C83        C        0.9938        0.20285        0.79715        -0.0756        
Mof_C84        C        0.84765        0.4959        0.65235        0.6621999999999999        
Mof_C85        C        0.79715        0.0062        0.79715        -0.1722        
Mof_C86        C        0.23255        0.5065        0.81435        -0.018199999999999997        
Mof_C87        C        0.5065        0.76745        0.18565        0.0294        
Mof_C88        C        0.9959        0.65235        0.34765        0.6678        
Mof_C89        C        0.9938        0.79715        0.20285        -0.0756        
Mof_C90        C        0.5041        0.84765        0.34765        0.6496        
Mof_C91        C        0.26745        0.9935        0.81435        0.063        
Mof_C92        C        0.9935        0.73255        0.18565        0.0406        
Mof_C93        C        0.15235        0.5041        0.65235        0.7098        
Mof_C94        C        0.20285        0.9938        0.79715        -0.0756        
Mof_C95        C        0.73255        0.0065        0.81435        -0.0392        
Mof_C96        C        0.34765        0.0041        0.34765        0.6831999999999999        
Mof_C97        C        0.23255        0.4935        0.18565        -0.020999999999999998        
Mof_C98        C        0.29715        0.9938        0.70285        -0.0784        
Mof_C99        C        0.0062        0.79715        0.79715        -0.1722        
Mof_C100        C        0.4935        0.18565        0.23255        -0.020999999999999998        
Mof_C101        C        0.4959        0.84765        0.65235        0.6621999999999999        
Mof_C102        C        0.0065        0.73255        0.81435        -0.0392        
Mof_C103        C        0.68565        0.0065        0.76745        0.006999999999999999        
Mof_C104        C        0.65235        0.9959        0.34765        0.6678        
Mof_C105        C        0.70285        0.0062        0.70285        -0.2576        
Mof_C106        C        0.76745        0.5065        0.18565        0.0294        
Mof_C107        C        0.5065        0.81435        0.23255        -0.018199999999999997        
Mof_C108        C        0.31435        0.9935        0.76745        0.0672        
Mof_C109        C        0.26745        0.68565        0.5065        0.0266        
Mof_C110        C        0.73255        0.31435        0.5065        -0.015399999999999999        
Mof_C111        C        0.23255        0.68565        0.9935        0.0392        
Mof_C112        C        0.0065        0.18565        0.26745        -0.0336        
Mof_C113        C        0.4935        0.73255        0.68565        0.018199999999999997        
Mof_C114        C        0.81435        0.0065        0.73255        -0.0392        
Mof_C115        C        0.0041        0.84765        0.84765        0.6342        
Mof_C116        C        0.4938        0.79715        0.70285        -0.12459999999999999        
Mof_C117        C        0.0065        0.81435        0.73255        -0.0392        
Mof_C118        C        0.73255        0.5065        0.31435        -0.015399999999999999        
Mof_C119        C        0.18565        0.0065        0.26745        -0.0336        
Mof_C120        C        0.84765        0.9959        0.15235        0.6621999999999999        
Mof_C121        C        0.79715        0.5062        0.29715        -0.13019999999999998        
Mof_C122        C        0.9935        0.18565        0.73255        0.0406        
Mof_C123        C        0.5065        0.26745        0.68565        0.0266        
Mof_C124        C        0.81435        0.9935        0.26745        0.063        
Mof_C125        C        0.9959        0.15235        0.84765        0.6621999999999999        
Mof_C126        C        0.65235        0.5041        0.15235        0.7098        
Mof_C127        C        0.26745        0.4935        0.31435        0.0042        
Mof_C128        C        0.76745        0.9935        0.31435        0.0672        
Mof_C129        C        0.15235        0.0041        0.15235        0.735        
Mof_C130        C        0.20285        0.4938        0.29715        -0.21        
Mof_C131        C        0.4959        0.65235        0.84765        0.6621999999999999        
Mof_C132        C        0.0065        0.76745        0.68565        0.006999999999999999        
Mof_C133        C        0.18565        0.9935        0.73255        0.0406        
Mof_C134        C        0.31435        0.4935        0.26745        0.0042        
Mof_C135        C        0.79715        0.4938        0.70285        -0.126        
Mof_C136        C        0.9935        0.81435        0.26745        0.063        
Mof_C137        C        0.4935        0.26745        0.31435        0.0028        
Mof_C138        C        0.18565        0.76745        0.5065        0.0294        
Mof_C139        C        0.0041        0.15235        0.15235        0.7336        
Mof_C140        C        0.4938        0.20285        0.29715        -0.21139999999999998        
Mof_C141        C        0.23255        0.18565        0.4935        -0.020999999999999998        
Mof_C142        C        0.81435        0.76745        0.4935        0.043399999999999994        
Mof_C143        C        0.26745        0.5065        0.68565        0.025199999999999997        
Mof_C144        C        0.34765        0.65235        0.9959        0.6678        
Mof_C145        C        0.15235        0.9959        0.84765        0.6607999999999999        
Mof_C146        C        0.20285        0.5062        0.70285        -0.21559999999999999        
Mof_C147        C        0.23255        0.81435        0.5065        -0.018199999999999997        
Mof_C148        C        0.34765        0.34765        0.0041        0.6831999999999999        
Mof_C149        C        0.18565        0.23255        0.4935        -0.020999999999999998        
Mof_C150        C        0.5065        0.73255        0.31435        -0.0168        
Mof_C151        C        0.65235        0.34765        0.9959        0.6678        
Mof_C152        C        0.9959        0.84765        0.15235        0.6607999999999999        
Mof_C153        C        0.5062        0.79715        0.29715        -0.1316        
Mof_C154        C        0.76745        0.18565        0.5065        0.0294        
Mof_C155        C        0.65235        0.65235        0.0041        0.6986        
Mof_C156        C        0.76745        0.81435        0.4935        0.043399999999999994        
Mof_C157        C        0.73255        0.4935        0.68565        0.0168        
Mof_C158        C        0.84765        0.0041        0.84765        0.6328        
Mof_C159        C        0.34765        0.4959        0.15235        0.7041999999999999        
Mof_C160        C        0.5062        0.20285        0.70285        -0.21419999999999997        
Mof_C161        C        0.23255        0.0065        0.31435        -0.0756        
Mof_C162        C        0.4959        0.34765        0.15235        0.7041999999999999        
Mof_C163        C        0.5065        0.31435        0.73255        -0.015399999999999999        
Mof_C164        C        0.0065        0.23255        0.31435        -0.0756        
Mof_C165        C        0.5062        0.29715        0.79715        -0.13019999999999998        
Mof_C166        C        0.29715        0.4938        0.20285        -0.21        
Mof_C167        C        0.31435        0.5065        0.73255        -0.015399999999999999        
Mof_C168        C        0.76745        0.0065        0.68565        0.006999999999999999        
Mof_C169        C        0.29715        0.5062        0.79715        -0.13019999999999998        
Mof_C170        C        0.5065        0.68565        0.26745        0.0266        
Mof_C171        C        0.5041        0.65235        0.15235        0.7098        
Mof_C172        C        0.5062        0.70285        0.20285        -0.21419999999999997        
Mof_C173        C        0.9935        0.76745        0.31435        0.0672        
Mof_C174        C        0.68565        0.4935        0.73255        0.018199999999999997        
Mof_C175        C        0.70285        0.4938        0.79715        -0.12459999999999999        
Mof_C176        C        0.81435        0.73255        0.0065        -0.0392        
Mof_C177        C        0.4935        0.31435        0.26745        0.0042        
Mof_C178        C        0.4938        0.29715        0.20285        -0.21        
Mof_C179        C        0.18565        0.26745        0.0065        -0.0336        
Mof_C180        C        0.26745        0.31435        0.4935        0.0042        
Mof_C181        C        0.15235        0.15235        0.0041        0.735        
Mof_C182        C        0.20285        0.29715        0.4938        -0.21        
Mof_C183        C        0.70285        0.5062        0.20285        -0.21419999999999997        
Mof_C184        C        0.23255        0.9935        0.68565        0.0392        
Mof_C185        C        0.65235        0.4959        0.84765        0.6621999999999999        
Mof_C186        C        0.79715        0.79715        0.0062        -0.1722        
Mof_C187        C        0.4938        0.70285        0.79715        -0.12459999999999999        
Mof_C188        C        0.9935        0.23255        0.68565        0.0392        
Mof_C189        C        0.68565        0.5065        0.26745        0.0266        
Mof_C190        C        0.5041        0.34765        0.84765        0.6496        
Mof_C191        C        0.4935        0.68565        0.73255        0.018199999999999997        
Mof_C192        C        0.34765        0.5041        0.84765        0.6496        
Mof_H1        H        0.13555        0.22        0.49355        -0.0574        
Mof_H2        H        0.99355        0.78        0.36445        0.1904        
Mof_H3        H        0.36445        0.22        0.00645        -0.0812        
Mof_H4        H        0.22        0.86445        0.50645        0.10219999999999999        
Mof_H5        H        0.86445        0.49355        0.78        0.16799999999999998        
Mof_H6        H        0.63555        0.78        0.00645        -0.018199999999999997        
Mof_H7        H        0.22        0.36445        0.00645        -0.0812        
Mof_H8        H        0.86445        0.72        0.00645        0.0392        
Mof_H9        H        0.22        0.00645        0.36445        -0.0812        
Mof_H10        H        0.13555        0.72        0.99355        0.08539999999999999        
Mof_H11        H        0.99355        0.63555        0.22        0.12739999999999999        
Mof_H12        H        0.22        0.13555        0.49355        -0.0574        
Mof_H13        H        0.00645        0.36445        0.22        -0.0812        
Mof_H14        H        0.72        0.13555        0.99355        0.08539999999999999        
Mof_H15        H        0.13555        0.78        0.50645        0.0028        
Mof_H16        H        0.13555        0.28        0.00645        -0.1358        
Mof_H17        H        0.86445        0.28        0.99355        0.2324        
Mof_H18        H        0.00645        0.78        0.63555        -0.018199999999999997        
Mof_H19        H        0.86445        0.22        0.50645        0.10219999999999999        
Mof_H20        H        0.13555        0.50645        0.78        0.0028        
Mof_H21        H        0.36445        0.78        0.99355        0.1904        
Mof_H22        H        0.86445        0.78        0.49355        0.16799999999999998        
Mof_H23        H        0.99355        0.28        0.86445        0.2324        
Mof_H24        H        0.22        0.50645        0.86445        0.10219999999999999        
Mof_H25        H        0.13555        0.00645        0.28        -0.1358        
Mof_H26        H        0.22        0.99355        0.63555        0.12739999999999999        
Mof_H27        H        0.13555        0.49355        0.22        -0.0574        
Mof_H28        H        0.00645        0.86445        0.72        0.0392        
Mof_H29        H        0.99355        0.36445        0.78        0.1904        
Mof_H30        H        0.99355        0.72        0.13555        0.08539999999999999        
Mof_H31        H        0.86445        0.00645        0.72        0.0392        
Mof_H32        H        0.99355        0.13555        0.72        0.08539999999999999        
Mof_H33        H        0.00645        0.28        0.13555        -0.1358        
Mof_H34        H        0.00645        0.22        0.36445        -0.0812        
Mof_H35        H        0.00645        0.13555        0.28        -0.1358        
Mof_H36        H        0.22        0.49355        0.13555        -0.0574        
Mof_H37        H        0.78        0.36445        0.99355        0.1904        
Mof_H38        H        0.13555        0.99355        0.72        0.08539999999999999        
Mof_H39        H        0.00645        0.63555        0.78        -0.018199999999999997        
Mof_H40        H        0.99355        0.86445        0.28        0.2324        
Mof_H41        H        0.00645        0.72        0.86445        0.0392        
Mof_H42        H        0.22        0.63555        0.99355        0.12739999999999999        
Mof_H43        H        0.86445        0.99355        0.28        0.2324        
Mof_H44        H        0.99355        0.22        0.63555        0.12739999999999999        
Mof_H45        H        0.78        0.86445        0.49355        0.16799999999999998        
Mof_H46        H        0.78        0.00645        0.63555        -0.018199999999999997        
Mof_H47        H        0.78        0.50645        0.13555        0.0028        
Mof_H48        H        0.78        0.63555        0.00645        -0.018199999999999997        
Mof_H49        H        0.78        0.13555        0.50645        0.0028        
Mof_H50        H        0.78        0.49355        0.86445        0.16799999999999998        
Mof_H51        H        0.78        0.99355        0.36445        0.1904        
Mof_H52        H        0.86445        0.50645        0.22        0.10219999999999999        
Mof_H53        H        0.49355        0.28        0.36445        0.0462        
Mof_H54        H        0.72        0.86445        0.00645        0.0392        
Mof_H55        H        0.36445        0.49355        0.28        0.0476        
Mof_H56        H        0.50645        0.22        0.86445        0.10219999999999999        
Mof_H57        H        0.09377        0.59377        0.40623        0.3388        
Mof_H58        H        0.28        0.49355        0.36445        0.0476        
Mof_H59        H        0.40623        0.09377        0.59377        0.3388        
Mof_H60        H        0.72        0.99355        0.13555        0.08539999999999999        
Mof_H61        H        0.50645        0.28        0.63555        0.0448        
Mof_H62        H        0.09377        0.90623        0.09377        0.33599999999999997        
Mof_H63        H        0.90623        0.09377        0.09377        0.33599999999999997        
Mof_H64        H        0.49355        0.22        0.13555        -0.0574        
Mof_H65        H        0.72        0.50645        0.36445        0.0588        
Mof_H66        H        0.72        0.00645        0.86445        0.0392        
Mof_H67        H        0.90623        0.90623        0.90623        0.6468        
Mof_H68        H        0.50645        0.78        0.13555        0.0028        
Mof_H69        H        0.59377        0.90623        0.59377        0.5082        
Mof_H70        H        0.28        0.99355        0.86445        0.2324        
Mof_H71        H        0.28        0.36445        0.49355        0.0476        
Mof_H72        H        0.49355        0.72        0.63555        0.061599999999999995        
Mof_H73        H        0.40623        0.59377        0.09377        0.3388        
Mof_H74        H        0.49355        0.63555        0.72        0.061599999999999995        
Mof_H75        H        0.63555        0.49355        0.72        0.061599999999999995        
Mof_H76        H        0.28        0.63555        0.50645        0.0448        
Mof_H77        H        0.63555        0.72        0.49355        0.061599999999999995        
Mof_H78        H        0.50645        0.63555        0.28        0.0448        
Mof_H79        H        0.72        0.36445        0.50645        0.0588        
Mof_H80        H        0.36445        0.50645        0.72        0.0588        
Mof_H81        H        0.40623        0.40623        0.90623        0.48579999999999995        
Mof_H82        H        0.28        0.00645        0.13555        -0.1358        
Mof_H83        H        0.36445        0.28        0.49355        0.0476        
Mof_H84        H        0.50645        0.36445        0.72        0.0588        
Mof_H85        H        0.63555        0.28        0.50645        0.0448        
Mof_H86        H        0.59377        0.40623        0.09377        0.3388        
Mof_H87        H        0.36445        0.72        0.50645        0.0588        
Mof_H88        H        0.49355        0.78        0.86445        0.16799999999999998        
Mof_H89        H        0.63555        0.50645        0.28        0.0448        
Mof_H90        H        0.59377        0.59377        0.90623        0.5082        
Mof_H91        H        0.72        0.63555        0.49355        0.061599999999999995        
Mof_H92        H        0.09377        0.09377        0.90623        0.33599999999999997        
Mof_H93        H        0.90623        0.40623        0.40623        0.48579999999999995        
Mof_H94        H        0.36445        0.00645        0.22        -0.0812        
Mof_H95        H        0.63555        0.22        0.99355        0.12739999999999999        
Mof_H96        H        0.59377        0.09377        0.40623        0.3374        
Mof_H97        H        0.28        0.13555        0.00645        -0.1358        
Mof_H98        H        0.28        0.86445        0.99355        0.2324        
Mof_H99        H        0.49355        0.86445        0.78        0.16799999999999998        
Mof_H100        H        0.28        0.50645        0.63555        0.043399999999999994        
Mof_H101        H        0.63555        0.99355        0.22        0.12739999999999999        
Mof_H102        H        0.09377        0.40623        0.59377        0.3374        
Mof_H103        H        0.50645        0.13555        0.78        0.0028        
Mof_H104        H        0.50645        0.72        0.36445        0.0574        
Mof_H105        H        0.50645        0.86445        0.22        0.10219999999999999        
Mof_H106        H        0.40623        0.90623        0.40623        0.48439999999999994        
Mof_H107        H        0.63555        0.00645        0.78        -0.018199999999999997        
Mof_H108        H        0.49355        0.36445        0.28        0.0476        
Mof_H109        H        0.49355        0.13555        0.22        -0.0574        
Mof_H110        H        0.90623        0.59377        0.59377        0.5067999999999999        
Mof_H111        H        0.36445        0.99355        0.78        0.1904        
Mof_H112        H        0.72        0.49355        0.63555        0.06019999999999999        
Mof_O1        O        0.59455        0.5026        0.17075        -0.9282        
Mof_O2        O        0.17075        0.5026        0.59455        -0.9296        
Mof_O3        O        0.90545        0.0026        0.82925        -0.9701999999999998        
Mof_O4        O        0.56727        0.43273        0.06727        -1.8493999999999997        
Mof_O5        O        0.90545        0.67075        0.4974        -0.7476        
Mof_O6        O        0.04943        0.45057        0.45057        -2.0902        
Mof_O7        O        0.0026        0.32925        0.40545        -1.1549999999999998        
Mof_O8        O        0.5026        0.40545        0.82925        -0.9057999999999999        
Mof_O9        O        0.93273        0.93273        0.93273        -1.0317999999999998        
Mof_O10        O        0.32925        0.09455        0.4974        -1.0626        
Mof_O11        O        0.56727        0.56727        0.93273        -1.4476        
Mof_O12        O        0.67075        0.90545        0.4974        -0.7476        
Mof_O13        O        0.32925        0.9974        0.59455        -0.6733999999999999        
Mof_O14        O        0.93273        0.06727        0.06727        -1.8088        
Mof_O15        O        0.67075        0.0026        0.59455        -1.1312        
Mof_O16        O        0.40545        0.5026        0.82925        -0.9057999999999999        
Mof_O17        O        0.09455        0.9974        0.82925        -0.7895999999999999        
Mof_O18        O        0.43273        0.56727        0.06727        -1.8493999999999997        
Mof_O19        O        0.5026        0.59455        0.17075        -0.9282        
Mof_O20        O        0.9974        0.67075        0.40545        -0.6566        
Mof_O21        O        0.09455        0.67075        0.5026        -1.0444        
Mof_O22        O        0.4974        0.17075        0.40545        -0.9296        
Mof_O23        O        0.59455        0.4974        0.82925        -0.9002        
Mof_O24        O        0.90545        0.82925        0.0026        -0.9701999999999998        
Mof_O25        O        0.4974        0.82925        0.59455        -0.9002        
Mof_O26        O        0.9974        0.90545        0.17075        -0.5236        
Mof_O27        O        0.04943        0.54943        0.54943        -2.0888        
Mof_O28        O        0.43273        0.43273        0.93273        -1.442        
Mof_O29        O        0.95057        0.54943        0.45057        -1.694        
Mof_O30        O        0.54943        0.95057        0.45057        -1.6926        
Mof_O31        O        0.9974        0.09455        0.82925        -0.7895999999999999        
Mof_O32        O        0.82925        0.5026        0.40545        -0.9057999999999999        
Mof_O33        O        0.06727        0.93273        0.06727        -1.8088        
Mof_O34        O        0.5026        0.17075        0.59455        -0.9282        
Mof_O35        O        0.90545        0.9974        0.17075        -0.5236        
Mof_O36        O        0.67075        0.09455        0.5026        -1.0444        
Mof_O37        O        0.95057        0.45057        0.54943        -1.6926        
Mof_O38        O        0.5026        0.82925        0.40545        -0.9072        
Mof_O39        O        0.67075        0.9974        0.40545        -0.6566        
Mof_O40        O        0.17075        0.4974        0.40545        -0.9282        
Mof_O41        O        0.45057        0.04943        0.45057        -2.0888        
Mof_O42        O        0.0026        0.90545        0.82925        -0.9701999999999998        
Mof_O43        O        0.0026        0.67075        0.59455        -1.1312        
Mof_O44        O        0.09455        0.32925        0.4974        -1.0626        
Mof_O45        O        0.40545        0.4974        0.17075        -0.9282        
Mof_O46        O        0.45057        0.95057        0.54943        -1.694        
Mof_O47        O        0.54943        0.04943        0.54943        -2.0902        
Mof_O48        O        0.32925        0.0026        0.40545        -1.1549999999999998        
Mof_O49        O        0.06727        0.06727        0.93273        -1.8088        
Mof_O50        O        0.32925        0.90545        0.5026        -0.77        
Mof_O51        O        0.4974        0.59455        0.82925        -0.9002        
Mof_O52        O        0.9974        0.32925        0.59455        -0.6733999999999999        
Mof_O53        O        0.82925        0.4974        0.59455        -0.9016        
Mof_O54        O        0.09455        0.0026        0.17075        -1.2852        
Mof_O55        O        0.0026        0.09455        0.17075        -1.2852        
Mof_O56        O        0.45057        0.54943        0.95057        -1.6926        
Mof_O57        O        0.09455        0.17075        0.0026        -1.2852        
Mof_O58        O        0.40545        0.9974        0.67075        -0.6566        
Mof_O59        O        0.32925        0.4974        0.09455        -1.0626        
Mof_O60        O        0.43273        0.93273        0.43273        -1.442        
Mof_O61        O        0.17075        0.9974        0.90545        -0.5236        
Mof_O62        O        0.9974        0.82925        0.09455        -0.7895999999999999        
Mof_O63        O        0.95057        0.95057        0.04943        -1.652        
Mof_O64        O        0.5026        0.67075        0.09455        -1.0444        
Mof_O65        O        0.56727        0.93273        0.56727        -1.4476        
Mof_O66        O        0.32925        0.5026        0.90545        -0.77        
Mof_O67        O        0.0026        0.17075        0.09455        -1.2852        
Mof_O68        O        0.04943        0.04943        0.04943        -2.4262        
Mof_O69        O        0.4974        0.32925        0.09455        -1.0626        
Mof_O70        O        0.67075        0.4974        0.90545        -0.7476        
Mof_O71        O        0.93273        0.43273        0.43273        -1.442        
Mof_O72        O        0.4974        0.40545        0.17075        -0.9282        
Mof_O73        O        0.90545        0.4974        0.67075        -0.7476        
Mof_O74        O        0.82925        0.0026        0.90545        -0.9701999999999998        
Mof_O75        O        0.9974        0.59455        0.32925        -0.6733999999999999        
Mof_O76        O        0.4974        0.09455        0.32925        -1.0626        
Mof_O77        O        0.56727        0.06727        0.43273        -1.8493999999999997        
Mof_O78        O        0.40545        0.67075        0.9974        -0.6566        
Mof_O79        O        0.59455        0.32925        0.9974        -0.6733999999999999        
Mof_O80        O        0.17075        0.09455        0.0026        -1.2852        
Mof_O81        O        0.82925        0.09455        0.9974        -0.7895999999999999        
Mof_O82        O        0.17075        0.90545        0.9974        -0.5236        
Mof_O83        O        0.59455        0.67075        0.0026        -1.1312        
Mof_O84        O        0.4974        0.90545        0.67075        -0.7476        
Mof_O85        O        0.0026        0.82925        0.90545        -0.9701999999999998        
Mof_O86        O        0.59455        0.9974        0.32925        -0.6733999999999999        
Mof_O87        O        0.5026        0.09455        0.67075        -1.0444        
Mof_O88        O        0.9974        0.17075        0.90545        -0.5236        
Mof_O89        O        0.40545        0.0026        0.32925        -1.1549999999999998        
Mof_O90        O        0.43273        0.06727        0.56727        -1.8493999999999997        
Mof_O91        O        0.5026        0.90545        0.32925        -0.77        
Mof_O92        O        0.67075        0.5026        0.09455        -1.0444        
Mof_O93        O        0.59455        0.0026        0.67075        -1.1312        
Mof_O94        O        0.40545        0.32925        0.0026        -1.1549999999999998        
Mof_O95        O        0.95057        0.04943        0.95057        -1.652        
Mof_O96        O        0.82925        0.9974        0.09455        -0.7895999999999999        
Mof_O97        O        0.90545        0.32925        0.5026        -0.77        
Mof_O98        O        0.82925        0.59455        0.4974        -0.9002        
Mof_O99        O        0.54943        0.45057        0.95057        -1.6926        
Mof_O100        O        0.67075        0.40545        0.9974        -0.6566        
Mof_O101        O        0.59455        0.17075        0.5026        -0.9282        
Mof_O102        O        0.06727        0.43273        0.56727        -1.8493999999999997        
Mof_O103        O        0.82925        0.40545        0.5026        -0.9057999999999999        
Mof_O104        O        0.9974        0.40545        0.67075        -0.6566        
Mof_O105        O        0.40545        0.82925        0.5026        -0.9057999999999999        
Mof_O106        O        0.09455        0.4974        0.32925        -1.0626        
Mof_O107        O        0.09455        0.82925        0.9974        -0.7895999999999999        
Mof_O108        O        0.54943        0.54943        0.04943        -2.0888        
Mof_O109        O        0.4974        0.67075        0.90545        -0.7476        
Mof_O110        O        0.59455        0.82925        0.4974        -0.9002        
Mof_O111        O        0.40545        0.17075        0.4974        -0.9282        
Mof_O112        O        0.93273        0.56727        0.56727        -1.4476        
Mof_O113        O        0.32925        0.40545        0.0026        -1.1549999999999998        
Mof_O114        O        0.0026        0.59455        0.67075        -1.1312        
Mof_O115        O        0.5026        0.32925        0.90545        -0.77        
Mof_O116        O        0.09455        0.5026        0.67075        -1.0444        
Mof_O117        O        0.17075        0.40545        0.4974        -0.9282        
Mof_O118        O        0.32925        0.59455        0.9974        -0.6733999999999999        
Mof_O119        O        0.45057        0.45057        0.04943        -2.0888        
Mof_O120        O        0.04943        0.95057        0.95057        -1.652        
Mof_O121        O        0.0026        0.40545        0.32925        -1.1549999999999998        
Mof_O122        O        0.90545        0.17075        0.9974        -0.5236        
Mof_O123        O        0.17075        0.59455        0.5026        -0.9282        
Mof_O124        O        0.17075        0.0026        0.09455        -1.2852        
Mof_O125        O        0.82925        0.90545        0.0026        -0.9701999999999998        
Mof_O126        O        0.90545        0.5026        0.32925        -0.77        
Mof_O127        O        0.06727        0.56727        0.43273        -1.8493999999999997        
Mof_O128        O        0.67075        0.59455        0.0026        -1.1312        
Mof_Zr1        Zr        0.6204        0.5        -0        4.4155999999999995        
Mof_Zr2        Zr        0.1204        0        -0        4.3386        
Mof_Zr3        Zr        0.5        0.1204        0.5        4.4968        
Mof_Zr4        Zr        1.36711e-33        0.1204        -0        4.3386        
Mof_Zr5        Zr        0.5        0.6204        -0        4.4155999999999995        
Mof_Zr6        Zr        0.5        0        0.3796        4.4142        
Mof_Zr7        Zr        -4.04517e-33        0.5        0.3796        4.4142        
Mof_Zr8        Zr        -3.59374e-33        0.3796        0.5        4.4142        
Mof_Zr9        Zr        0.5        0        0.6204        4.4155999999999995        
Mof_Zr10        Zr        0.5        0.5        0.1204        4.4968        
Mof_Zr11        Zr        0.1204        0.5        0.5        4.4968        
Mof_Zr12        Zr        0.5        0.5        0.8796        4.4912        
Mof_Zr13        Zr        0.8796        0.5        0.5        4.4912        
Mof_Zr14        Zr        1.81854e-33        0        0.1204        4.34        
Mof_Zr15        Zr        7.34314e-33        0.6204        0.5        4.4155999999999995        
Mof_Zr16        Zr        1.42348e-32        0        0.8796        4.3358        
Mof_Zr17        Zr        0.3796        0.5        -0        4.4142        
Mof_Zr18        Zr        0.3796        0        0.5        4.4142        
Mof_Zr19        Zr        0.8796        0        -0        4.3344        
Mof_Zr20        Zr        7.79457e-33        0.5        0.6204        4.4155999999999995        
Mof_Zr21        Zr        0.5        0.3796        -0        4.4142        
Mof_Zr22        Zr        1.09369e-32        0.8796        -0        4.3344        
Mof_Zr23        Zr        0.6204        0        0.5        4.4155999999999995        
Mof_Zr24        Zr        0.5        0.8796        0.5        4.4912        
